LAMMPS (3 Nov 2022)
# Initialize simulation

variable nsteps index 1000
variable nrep equal 4
variable a equal 3.316
units           metal

# generate the box and atom positions using a BCC lattice

variable nx equal 4
variable ny equal 4
variable nz equal 4

boundary        p p p

lattice         bcc $a
lattice         bcc 3.316
Lattice spacing in x,y,z = 3.316 3.316 3.316
region          box block 0 4 0 4 0 4
create_box      1 box
Created orthogonal box = (0 0 0) to (13.264 13.264 13.264)
create_atoms    1 box
Created 128 atoms

mass 1 180.88

# choose potential

pair_style pace product
ACE version: 2022.6.27
Product evaluator is used
pair_coeff * * ../Ta_pot.yace Ta
Loading ../Ta_pot.yace
Total number of basis functions
	Ta: 8 (r=1) 35 (r>1)
Mapping LAMMPS atom type #1(Ta) -> ACE species type #0

compute  eatom all pe/atom
compute  energy all reduce sum c_eatom

compute  satom all stress/atom NULL
compute  str all reduce sum c_satom[1] c_satom[2] c_satom[3]
variable press equal (c_str[1]+c_str[2]+c_str[3])/(3*vol)

thermo_style    custom step temp epair c_energy etotal press v_press
thermo          10
thermo_modify norm yes

# Set up NVE run

timestep 0.5e-3
neighbor 1.0 bin
neigh_modify once no every 1 delay 0 check yes

# Run MD

velocity all create 200.0 4928459 loop geom
dump 1 all xyz 10 dump.xyz
fix 1 all nve
run             1000
Step          Temp          E_pair        c_energy        TotEng         Press         v_press
0   200           -11.663361     -11.663361     -11.637711     -4152.2598      4152.2598
Averages over the last 51 of 101 rows, steps 500 to 1000:
Temp E_pair c_energy TotEng Press v_press
97.8494 -11.6503 -11.6503 -11.6377 395.146 -395.146
Loop time of 1.57343 on 1 procs for 1000 steps with 128 atoms
